  Page 1                                    Thu May 29 01:14:26 2025

  ******************************************************************
  *                           E P A N E T                          *
  *                   Hydraulic and Water Quality                  *
  *                   Analysis for Pipe Networks                   *
  *                         Version 2.2                            *
  ******************************************************************
  
  Analysis begun Thu May 29 01:14:26 2025

  Analysis ended Thu May 29 01:14:26 2025
