  Page 1                                    Sat May 31 00:08:46 2025

  ******************************************************************
  *                           E P A N E T                          *
  *                   Hydraulic and Water Quality                  *
  *                   Analysis for Pipe Networks                   *
  *                         Version 2.2                            *
  ******************************************************************
  
  Analysis begun Sat May 31 00:08:46 2025

  Analysis ended Sat May 31 00:08:46 2025
