  Page 1                                    Fri May 30 18:23:08 2025

  ******************************************************************
  *                           E P A N E T                          *
  *                   Hydraulic and Water Quality                  *
  *                   Analysis for Pipe Networks                   *
  *                         Version 2.2                            *
  ******************************************************************
  
  Analysis begun Fri May 30 18:23:08 2025

  Analysis ended Fri May 30 18:23:08 2025
