  Page 1                                    Mon Jun 02 00:05:26 2025

  ******************************************************************
  *                           E P A N E T                          *
  *                   Hydraulic and Water Quality                  *
  *                   Analysis for Pipe Networks                   *
  *                         Version 2.2                            *
  ******************************************************************
  
  Analysis begun Mon Jun 02 00:05:26 2025

   
  Hydraulic Status:
  -----------------------------------------------------------------------
     0:00:00: Balancing the network:

              Trial  1: relative flow change = 1.041577
              Trial  2: relative flow change = 0.298397
              Pipe 142 switched from open to closed
              Pipe 143 switched from open to closed
              Pump 78 switched from open to closed
              Trial  3: relative flow change = 1.142208
              Trial  4: relative flow change = 0.136891
              Pump 78 switched from closed to open
              Trial  5: relative flow change = 0.057196
              Trial  6: relative flow change = 0.010909
              Trial  7: relative flow change = 0.000778
                        maximum  flow change = 2.2630 for Link 34
                        maximum  head error  = 0.0013 for Link 34

     0:00:00: Balanced after 7 trials
     0:00:00: Reservoir 40 is emptying
     0:00:00: Tank 41 is closed at 3.05 m
     0:00:00: Tank 42 is closed at 3.05 m
     0:00:00: Pipe 142 temporarily closed
     0:00:00: Pipe 143 temporarily closed
   
  WARNING: Negative pressures at 0:00:00 hrs.
   
     1:00:00: Balancing the network:

              Trial  1: relative flow change = 0.076680
              Trial  2: relative flow change = 0.026182
              Pump 78 switched from open to closed
              Trial  3: relative flow change = 0.045437
              Trial  4: relative flow change = 0.000000
                        maximum  flow change = 0.0000 for Link 40
                        maximum  head error  = 0.0000 for Link 1

     1:00:00: Balanced after 4 trials
     1:00:00: Pump 78 changed from open to closed because cannot deliver head
   
  WARNING: Negative pressures at 1:00:00 hrs.
  WARNING: Pump 78 closed because cannot deliver head at 1:00:00 hrs.
   
     2:00:00: Balancing the network:

              Trial  1: relative flow change = 0.067867
              Trial  2: relative flow change = 0.026182
              Pump 78 switched from open to closed
              Trial  3: relative flow change = 0.045437
              Trial  4: relative flow change = 0.000000
                        maximum  flow change = 0.0000 for Link 33
                        maximum  head error  = 0.0000 for Link 1

     2:00:00: Balanced after 4 trials
   
  WARNING: Negative pressures at 2:00:00 hrs.
  WARNING: Pump 78 closed because cannot deliver head at 2:00:00 hrs.
   
     3:00:00: Balancing the network:

              Trial  1: relative flow change = 0.222520
              Trial  2: relative flow change = 0.115679
              Pump 78 switched from open to closed
              Trial  3: relative flow change = 0.079658
              Trial  4: relative flow change = 0.000000
                        maximum  flow change = 0.0000 for Link 40
                        maximum  head error  = 0.0000 for Link pipe_26_2

     3:00:00: Balanced after 4 trials
   
  WARNING: Negative pressures at 3:00:00 hrs.
  WARNING: Pump 78 closed because cannot deliver head at 3:00:00 hrs.
   
     4:00:00: Balancing the network:

              Trial  1: relative flow change = 0.169816
              Trial  2: relative flow change = 0.115679
              Pump 78 switched from open to closed
              Trial  3: relative flow change = 0.079658
              Trial  4: relative flow change = 0.000000
                        maximum  flow change = 0.0000 for Link 4
                        maximum  head error  = 0.0000 for Link pipe_26_2

     4:00:00: Balanced after 4 trials
   
  WARNING: Negative pressures at 4:00:00 hrs.
  WARNING: Pump 78 closed because cannot deliver head at 4:00:00 hrs.
   
     5:00:00: Balancing the network:

              Trial  1: relative flow change = 0.106875
              Trial  2: relative flow change = 0.076609
              Pump 78 switched from open to closed
              Trial  3: relative flow change = 0.039991
              Trial  4: relative flow change = 0.000000
                        maximum  flow change = 0.0000 for Link 33
                        maximum  head error  = 0.0000 for Link pipe_26_2

     5:00:00: Balanced after 4 trials
   
  WARNING: Negative pressures at 5:00:00 hrs.
  WARNING: Pump 78 closed because cannot deliver head at 5:00:00 hrs.
   
     6:00:00: Balancing the network:

              Trial  1: relative flow change = 0.422055
              Trial  2: relative flow change = 0.006541
                        maximum  flow change = 37.6853 for Link 78
                        maximum  head error  = 0.0000 for Link pipe_26_3

     6:00:00: Balanced after 2 trials
     6:00:00: Pump 78 changed from closed because cannot deliver head to open
   
  WARNING: Negative pressures at 6:00:00 hrs.
   
     7:00:00: Balancing the network:

              Trial  1: relative flow change = 0.000000
                        maximum  flow change = 0.0000 for Link 33
                        maximum  head error  = 0.0000 for Link pipe_26_3

     7:00:00: Balanced after 1 trials
   
  WARNING: Negative pressures at 7:00:00 hrs.
   
     8:00:00: Balancing the network:

              Trial  1: relative flow change = 0.000000
                        maximum  flow change = 0.0000 for Link 4
                        maximum  head error  = 0.0000 for Link pipe_26_3

     8:00:00: Balanced after 1 trials
   
  WARNING: Negative pressures at 8:00:00 hrs.
   
     9:00:00: Balancing the network:

              Trial  1: relative flow change = 0.166667
              Trial  2: relative flow change = 0.000000
                        maximum  flow change = 0.0000 for Link 4
                        maximum  head error  = 0.0000 for Link pipe_26_2

     9:00:00: Balanced after 2 trials
   
  WARNING: Negative pressures at 9:00:00 hrs.
   
    10:00:00: Balancing the network:

              Trial  1: relative flow change = 0.000000
                        maximum  flow change = 0.0000 for Link 4
                        maximum  head error  = 0.0000 for Link pipe_26_2

    10:00:00: Balanced after 1 trials
   
  WARNING: Negative pressures at 10:00:00 hrs.
   
    11:00:00: Balancing the network:

              Trial  1: relative flow change = 0.000000
                        maximum  flow change = 0.0000 for Link 33
                        maximum  head error  = 0.0000 for Link 2

    11:00:00: Balanced after 1 trials
   
  WARNING: Negative pressures at 11:00:00 hrs.
   
    12:00:00: Balancing the network:

              Trial  1: relative flow change = 0.510202
              Trial  2: relative flow change = 0.077608
              Trial  3: relative flow change = 0.003007
                        maximum  flow change = 29.6981 for Link 78
                        maximum  head error  = 0.0000 for Link pipe_26_3

    12:00:00: Balanced after 3 trials
   
  WARNING: Negative pressures at 12:00:00 hrs.
  WARNING: Pump 78 open but exceeds maximum flow at 12:00:00 hrs.
   
    13:00:00: Balancing the network:

              Trial  1: relative flow change = 0.000000
                        maximum  flow change = 0.0000 for Link 40
                        maximum  head error  = 0.0000 for Link pipe_26_2

    13:00:00: Balanced after 1 trials
   
  WARNING: Negative pressures at 13:00:00 hrs.
  WARNING: Pump 78 open but exceeds maximum flow at 13:00:00 hrs.
   
    14:00:00: Balancing the network:

              Trial  1: relative flow change = 0.000000
                        maximum  flow change = 0.0000 for Link 4
                        maximum  head error  = 0.0000 for Link pipe_26_2

    14:00:00: Balanced after 1 trials
   
  WARNING: Negative pressures at 14:00:00 hrs.
  WARNING: Pump 78 open but exceeds maximum flow at 14:00:00 hrs.
   
    15:00:00: Balancing the network:

              Trial  1: relative flow change = 0.087670
              Trial  2: relative flow change = 0.000000
                        maximum  flow change = 0.0000 for Link 4
                        maximum  head error  = 0.0000 for Link pipe_26_2

    15:00:00: Balanced after 2 trials
   
  WARNING: Negative pressures at 15:00:00 hrs.
  WARNING: Pump 78 open but exceeds maximum flow at 15:00:00 hrs.
   
    16:00:00: Balancing the network:

              Trial  1: relative flow change = 0.000000
                        maximum  flow change = 0.0000 for Link 36
                        maximum  head error  = 0.0000 for Link 2

    16:00:00: Balanced after 1 trials
   
  WARNING: Negative pressures at 16:00:00 hrs.
  WARNING: Pump 78 open but exceeds maximum flow at 16:00:00 hrs.
   
    17:00:00: Balancing the network:

              Trial  1: relative flow change = 0.035351
              Trial  2: relative flow change = 0.000000
                        maximum  flow change = 0.0000 for Link 4
                        maximum  head error  = 0.0000 for Link 1

    17:00:00: Balanced after 2 trials
   
  WARNING: Negative pressures at 17:00:00 hrs.
  WARNING: Pump 78 open but exceeds maximum flow at 17:00:00 hrs.
   
    18:00:00: Balancing the network:

              Trial  1: relative flow change = 0.095964
              Trial  2: relative flow change = 0.000000
                        maximum  flow change = 0.0000 for Link 4
                        maximum  head error  = 0.0000 for Link 3

    18:00:00: Balanced after 2 trials
   
  WARNING: Negative pressures at 18:00:00 hrs.
   
    19:00:00: Balancing the network:

              Trial  1: relative flow change = 0.039839
              Trial  2: relative flow change = 0.000641
                        maximum  flow change = 6.3264 for Link 78
                        maximum  head error  = 0.0000 for Link pipe_26_2

    19:00:00: Balanced after 2 trials
   
  WARNING: Negative pressures at 19:00:00 hrs.
   
    20:00:00: Balancing the network:

              Trial  1: relative flow change = 0.000000
                        maximum  flow change = 0.0000 for Link 40
                        maximum  head error  = 0.0000 for Link 1

    20:00:00: Balanced after 1 trials
   
  WARNING: Negative pressures at 20:00:00 hrs.
   
    21:00:00: Balancing the network:

              Trial  1: relative flow change = 0.107112
              Trial  2: relative flow change = 0.004654
                        maximum  flow change = 42.1383 for Link 78
                        maximum  head error  = 0.0000 for Link pipe_26_2

    21:00:00: Balanced after 2 trials
   
  WARNING: Negative pressures at 21:00:00 hrs.
   
    22:00:00: Balancing the network:

              Trial  1: relative flow change = 0.046035
              Trial  2: relative flow change = 0.010351
              Trial  3: relative flow change = 0.000173
                        maximum  flow change = 1.5683 for Link 78
                        maximum  head error  = 0.0000 for Link pipe_26_2

    22:00:00: Balanced after 3 trials
   
  WARNING: Negative pressures at 22:00:00 hrs.
   
    23:00:00: Balancing the network:

              Trial  1: relative flow change = 0.000000
                        maximum  flow change = 0.0000 for Link 4
                        maximum  head error  = 0.0000 for Link pipe_26_2

    23:00:00: Balanced after 1 trials
   
  WARNING: Negative pressures at 23:00:00 hrs.
   
    24:00:00: Balancing the network:

              Trial  1: relative flow change = 0.100000
              Trial  2: relative flow change = 0.000000
                        maximum  flow change = 0.0000 for Link 4
                        maximum  head error  = 0.0000 for Link 29

    24:00:00: Balanced after 2 trials
   
  WARNING: Negative pressures at 24:00:00 hrs.
   
  Analysis ended Mon Jun 02 00:05:26 2025
