  Page 1                                    Sun Jun 01 00:54:44 2025

  ******************************************************************
  *                           E P A N E T                          *
  *                   Hydraulic and Water Quality                  *
  *                   Analysis for Pipe Networks                   *
  *                         Version 2.2                            *
  ******************************************************************
  
  Analysis begun Sun Jun 01 00:54:44 2025

   
  Hydraulic Status:
  -----------------------------------------------------------------------
     0:00:00: Balancing the network:

              Trial  1: relative flow change = 1.050982
              Trial  2: relative flow change = 0.343393
              Pipe 142 switched from open to closed
              Pipe 143 switched from open to closed
              Pump 78 switched from open to closed
              Trial  3: relative flow change = 1.028316
              Trial  4: relative flow change = 0.088098
              Trial  5: relative flow change = 0.020568
              Trial  6: relative flow change = 0.003316
                        maximum  flow change = 7.9831 for Link 34
                        maximum  head error  = 0.0172 for Link 34

     0:00:00: Balanced after 6 trials
     0:00:00: Reservoir 40 is emptying
     0:00:00: Tank 41 is closed at 3.05 m
     0:00:00: Tank 42 is closed at 3.05 m
     0:00:00: Pipe 142 temporarily closed
     0:00:00: Pipe 143 temporarily closed
     0:00:00: Pump 78 closed because cannot deliver head
   
  WARNING: Negative pressures at 0:00:00 hrs.
  WARNING: Pump 78 closed because cannot deliver head at 0:00:00 hrs.
   
     1:00:00: Balancing the network:

              Trial  1: relative flow change = 0.220901
              Trial  2: relative flow change = 0.191812
              Pump 78 switched from open to closed
              Trial  3: relative flow change = 0.076802
              Trial  4: relative flow change = 0.000000
                        maximum  flow change = 0.0000 for Link 4
                        maximum  head error  = 0.0000 for Link 2

     1:00:00: Balanced after 4 trials
   
  WARNING: Negative pressures at 1:00:00 hrs.
  WARNING: Pump 78 closed because cannot deliver head at 1:00:00 hrs.
   
     2:00:00: Balancing the network:

              Trial  1: relative flow change = 0.220786
              Trial  2: relative flow change = 0.191811
              Pump 78 switched from open to closed
              Trial  3: relative flow change = 0.076802
              Trial  4: relative flow change = 0.000000
                        maximum  flow change = 0.0000 for Link 4
                        maximum  head error  = 0.0000 for Link 3

     2:00:00: Balanced after 4 trials
   
  WARNING: Negative pressures at 2:00:00 hrs.
  WARNING: Pump 78 closed because cannot deliver head at 2:00:00 hrs.
   
     3:00:00: Balancing the network:

              Trial  1: relative flow change = 0.375323
              Trial  2: relative flow change = 0.256172
              Pump 78 switched from open to closed
              Trial  3: relative flow change = 0.192759
              Trial  4: relative flow change = 0.000000
                        maximum  flow change = 0.0000 for Link 4
                        maximum  head error  = 0.0000 for Link 1

     3:00:00: Balanced after 4 trials
   
  WARNING: Negative pressures at 3:00:00 hrs.
  WARNING: Pump 78 closed because cannot deliver head at 3:00:00 hrs.
   
     4:00:00: Balancing the network:

              Trial  1: relative flow change = 0.332582
              Trial  2: relative flow change = 0.256172
              Pump 78 switched from open to closed
              Trial  3: relative flow change = 0.192759
              Trial  4: relative flow change = 0.000000
                        maximum  flow change = 0.0000 for Link 4
                        maximum  head error  = 0.0000 for Link 1

     4:00:00: Balanced after 4 trials
   
  WARNING: Negative pressures at 4:00:00 hrs.
  WARNING: Pump 78 closed because cannot deliver head at 4:00:00 hrs.
   
     5:00:00: Balancing the network:

              Trial  1: relative flow change = 0.260138
              Trial  2: relative flow change = 0.223226
              Pump 78 switched from open to closed
              Trial  3: relative flow change = 0.104949
              Trial  4: relative flow change = 0.000000
                        maximum  flow change = 0.0000 for Link 4
                        maximum  head error  = 0.0000 for Link 8

     5:00:00: Balanced after 4 trials
   
  WARNING: Negative pressures at 5:00:00 hrs.
  WARNING: Pump 78 closed because cannot deliver head at 5:00:00 hrs.
   
     6:00:00: Balancing the network:

              Trial  1: relative flow change = 0.390689
              Trial  2: relative flow change = 0.058746
              Trial  3: relative flow change = 0.022505
              Trial  4: relative flow change = 0.000000
                        maximum  flow change = 0.0000 for Link 4
                        maximum  head error  = 0.0000 for Link 2

     6:00:00: Balanced after 4 trials
     6:00:00: Pump 78 changed from closed because cannot deliver head to open
   
  WARNING: Negative pressures at 6:00:00 hrs.
   
     7:00:00: Balancing the network:

              Trial  1: relative flow change = 0.000000
                        maximum  flow change = 0.0000 for Link 4
                        maximum  head error  = 0.0000 for Link 2

     7:00:00: Balanced after 1 trials
   
  WARNING: Negative pressures at 7:00:00 hrs.
   
     8:00:00: Balancing the network:

              Trial  1: relative flow change = 0.000000
                        maximum  flow change = 0.0000 for Link 4
                        maximum  head error  = 0.0000 for Link 2

     8:00:00: Balanced after 1 trials
   
  WARNING: Negative pressures at 8:00:00 hrs.
   
     9:00:00: Balancing the network:

              Trial  1: relative flow change = 0.166667
              Trial  2: relative flow change = 0.000000
                        maximum  flow change = 0.0000 for Link 4
                        maximum  head error  = 0.0000 for Link 2

     9:00:00: Balanced after 2 trials
   
  WARNING: Negative pressures at 9:00:00 hrs.
   
    10:00:00: Balancing the network:

              Trial  1: relative flow change = 0.000000
                        maximum  flow change = 0.0000 for Link 78
                        maximum  head error  = 0.0000 for Link 79

    10:00:00: Balanced after 1 trials
   
  WARNING: Negative pressures at 10:00:00 hrs.
   
    11:00:00: Balancing the network:

              Trial  1: relative flow change = 0.000000
                        maximum  flow change = 0.0000 for Link 40
                        maximum  head error  = 0.0000 for Link 2

    11:00:00: Balanced after 1 trials
   
  WARNING: Negative pressures at 11:00:00 hrs.
   
    12:00:00: Balancing the network:

              Trial  1: relative flow change = 0.693968
              Trial  2: relative flow change = 0.317564
              Trial  3: relative flow change = 0.000000
                        maximum  flow change = 0.0000 for Link 40
                        maximum  head error  = 0.0000 for Link 1

    12:00:00: Balanced after 3 trials
   
  WARNING: Negative pressures at 12:00:00 hrs.
   
    13:00:00: Balancing the network:

              Trial  1: relative flow change = 0.000000
                        maximum  flow change = 0.0000 for Link 40
                        maximum  head error  = 0.0000 for Link 1

    13:00:00: Balanced after 1 trials
   
  WARNING: Negative pressures at 13:00:00 hrs.
   
    14:00:00: Balancing the network:

              Trial  1: relative flow change = 0.000000
                        maximum  flow change = 0.0000 for Link 4
                        maximum  head error  = 0.0000 for Link 1

    14:00:00: Balanced after 1 trials
   
  WARNING: Negative pressures at 14:00:00 hrs.
   
    15:00:00: Balancing the network:

              Trial  1: relative flow change = 0.107462
              Trial  2: relative flow change = 0.001624
                        maximum  flow change = 12.3782 for Link 78
                        maximum  head error  = 0.0000 for Link 1

    15:00:00: Balanced after 2 trials
   
  WARNING: Negative pressures at 15:00:00 hrs.
  WARNING: Pump 78 open but exceeds maximum flow at 15:00:00 hrs.
   
    16:00:00: Balancing the network:

              Trial  1: relative flow change = 0.000000
                        maximum  flow change = 0.0000 for Link 4
                        maximum  head error  = 0.0000 for Link 3

    16:00:00: Balanced after 1 trials
   
  WARNING: Negative pressures at 16:00:00 hrs.
  WARNING: Pump 78 open but exceeds maximum flow at 16:00:00 hrs.
   
    17:00:00: Balancing the network:

              Trial  1: relative flow change = 0.064329
              Trial  2: relative flow change = 0.004713
                        maximum  flow change = 35.9284 for Link 78
                        maximum  head error  = 0.0000 for Link 2

    17:00:00: Balanced after 2 trials
   
  WARNING: Negative pressures at 17:00:00 hrs.
   
    18:00:00: Balancing the network:

              Trial  1: relative flow change = 0.118824
              Trial  2: relative flow change = 0.000000
                        maximum  flow change = 0.0000 for Link 4
                        maximum  head error  = 0.0000 for Link 3

    18:00:00: Balanced after 2 trials
   
  WARNING: Negative pressures at 18:00:00 hrs.
   
    19:00:00: Balancing the network:

              Trial  1: relative flow change = 0.067772
              Trial  2: relative flow change = 0.004240
                        maximum  flow change = 29.8337 for Link 78
                        maximum  head error  = 0.0000 for Link 2

    19:00:00: Balanced after 2 trials
   
  WARNING: Negative pressures at 19:00:00 hrs.
   
    20:00:00: Balancing the network:

              Trial  1: relative flow change = 0.000000
                        maximum  flow change = 0.0000 for Link 4
                        maximum  head error  = 0.0000 for Link 2

    20:00:00: Balanced after 1 trials
   
  WARNING: Negative pressures at 20:00:00 hrs.
   
    21:00:00: Balancing the network:

              Trial  1: relative flow change = 0.138780
              Trial  2: relative flow change = 0.024056
              Trial  3: relative flow change = 0.009159
                        maximum  flow change = 59.0766 for Link 78
                        maximum  head error  = 0.0000 for Link 1

    21:00:00: Balanced after 3 trials
   
  WARNING: Negative pressures at 21:00:00 hrs.
   
    22:00:00: Balancing the network:

              Trial  1: relative flow change = 0.122674
              Trial  2: relative flow change = 0.050197
              Pump 78 switched from open to closed
              Trial  3: relative flow change = 0.047953
              Trial  4: relative flow change = 0.000000
                        maximum  flow change = 0.0000 for Link 4
                        maximum  head error  = 0.0000 for Link 3

    22:00:00: Balanced after 4 trials
    22:00:00: Pump 78 changed from open to closed because cannot deliver head
   
  WARNING: Negative pressures at 22:00:00 hrs.
  WARNING: Pump 78 closed because cannot deliver head at 22:00:00 hrs.
   
    23:00:00: Balancing the network:

              Trial  1: relative flow change = 0.078982
              Trial  2: relative flow change = 0.036073
              Pump 78 switched from open to closed
              Trial  3: relative flow change = 0.047953
              Trial  4: relative flow change = 0.000000
                        maximum  flow change = 0.0000 for Link 4
                        maximum  head error  = 0.0000 for Link 2

    23:00:00: Balanced after 4 trials
   
  WARNING: Negative pressures at 23:00:00 hrs.
  WARNING: Pump 78 closed because cannot deliver head at 23:00:00 hrs.
   
    24:00:00: Balancing the network:

              Trial  1: relative flow change = 0.164512
              Trial  2: relative flow change = 0.099249
              Pump 78 switched from open to closed
              Trial  3: relative flow change = 0.026083
              Trial  4: relative flow change = 0.000000
                        maximum  flow change = 0.0000 for Link 4
                        maximum  head error  = 0.0000 for Link 2

    24:00:00: Balanced after 4 trials
   
  WARNING: Negative pressures at 24:00:00 hrs.
  WARNING: Pump 78 closed because cannot deliver head at 24:00:00 hrs.
   
  Analysis ended Sun Jun 01 00:54:44 2025
