  Page 1                                    Sun Jun 01 02:09:27 2025

  ******************************************************************
  *                           E P A N E T                          *
  *                   Hydraulic and Water Quality                  *
  *                   Analysis for Pipe Networks                   *
  *                         Version 2.2                            *
  ******************************************************************
  
   
      Input Data File ................... temp.inp
      Number of Junctions................ 0
      Number of Reservoirs............... 0
      Number of Tanks ................... 0
      Number of Pipes ................... 0
      Number of Pumps ................... 0
      Number of Valves .................. 0
      Headloss Formula .................. Hazen-Williams
      Nodal Demand Model ................ DDA
      Hydraulic Timestep ................ 1.00 hrs
      Hydraulic Accuracy ................ 0.001000
      Status Check Frequency ............ 2
      Maximum Trials Checked ............ 10
      Damping Limit Threshold ........... 0.000000
      Maximum Trials .................... 200
      Quality Analysis .................. None
      Specific Gravity .................. 1.00
      Relative Kinematic Viscosity ...... 1.00
      Relative Chemical Diffusivity ..... 1.00
      Demand Multiplier ................. 1.00
      Total Duration .................... 0.00 hrs
      Reporting Criteria:
         No Nodes
         No Links
   
  Analysis begun Sun Jun 01 02:09:27 2025

  Error 223: not enough nodes in networkion:
  PUMP 80         EFFIC   E1

  Error 203: undefined node 40 in [COORDINATES] section:
  40               8700.600000000       3371.150000000

  Error 203: undefined node 41 in [COORDINATES] section:
  41               6094.000000000       6600.190000000

  Error 200: one or more errors in input file                 ;

  Error 200: one or more errors in input filein [PIPES] section:
   28                   16                   27                               750           304.8             130               0                 Open   ;

  Error 200: one or more errors in input filerrors in input file  in [PUMPS] section:
   79                   40                   20                   HEAD     2                      ;

  Error 200: one or more errors in input file  in [PUMPS] section:
   80                   40                   20                   HEAD     2                      ;

  Error 200: one or more errors in input filetive flow change = 0.000000
                        maximum  flow change = 0.0000 for Link 4
                        maximum  head error  = 0.0000 for Link 1

              Pump 78 switched from open to closed
              Trial  3: relative flow change = 0.019814
              Trial  4: relative flow change = 0.000000
                        maximum  flow change = 0.0000 for Link 40
                        maximum  head error  = 0.0000 for Link 2

     2:00:00: Balanced after 4 trials
   
  WARNING: Negative pressures at 2:00:00 hrs.
  WARNING: Pump 78 closed because cannot deliver head at 2:00:00 hrs.
  WARNING: Pump 79 open but exceeds maximum flow at 2:00:00 hrs.
  WARNING: Pump 80 open but exceeds maximum flow at 2:00:00 hrs.
   
     3:00:00: Balancing the network:

              Trial  1: relative flow change = 0.174080
              Trial  2: relative flow change = 0.084952
              Pump 78 switched from open to closed
              Trial  3: relative flow change = 0.045229
              Trial  4: relative flow change = 0.000000
                        maximum  flow change = 0.0000 for Link 4
                        maximum  head error  = 0.0000 for Link 3

     3:00:00: Balanced after 4 trials
   
  WARNING: Negative pressures at 3:00:00 hrs.
  WARNING: Pump 78 closed because cannot deliver head at 3:00:00 hrs.
   
     4:00:00: Balancing the network:

              Trial  1: relative flow change = 0.118184
              Trial  2: relative flow change = 0.084952
              Pump 78 switched from open to closed
              Trial  3: relative flow change = 0.045229
              Trial  4: relative flow change = 0.000000
                        maximum  flow change = 0.0000 for Link 4
                        maximum  head error  = 0.0000 for Link 1

     4:00:00: Balanced after 4 trials
   
  WARNING: Negative pressures at 4:00:00 hrs.
  WARNING: Pump 78 closed because cannot deliver head at 4:00:00 hrs.
   
     5:00:00: Balancing the network:

              Trial  1: relative flow change = 0.057369
              Trial  2: relative flow change = 0.023328
              Pump 78 switched from open to closed
              Trial  3: relative flow change = 0.036677
              Trial  4: relative flow change = 0.000000
                        maximum  flow change = 0.0000 for Link 4
                        maximum  head error  = 0.0000 for Link 3

     5:00:00: Balanced after 4 trials
   
  WARNING: Negative pressures at 5:00:00 hrs.
  WARNING: Pump 78 closed because cannot deliver head at 5:00:00 hrs.
   
     6:00:00: Balancing the network:

              Trial  1: relative flow change = 0.445870
              Trial  2: relative flow change = 0.018764
              Trial  3: relative flow change = 0.001779
                        maximum  flow change = 11.7019 for Link 78
                        maximum  head error  = 0.0000 for Link 3

     6:00:00: Balanced after 3 trials
     6:00:00: Pump 78 changed from closed because cannot deliver head to open
   
  WARNING: Negative pressures at 6:00:00 hrs.
   
     7:00:00: Balancing the network:

              Trial  1: relative flow change = 0.000000
                        maximum  flow change = 0.0000 for Link 40
                        maximum  head error  = 0.0000 for Link 1

     7:00:00: Balanced after 1 trials
   
  WARNING: Negative pressures at 7:00:00 hrs.
   
     8:00:00: Balancing the network:

              Trial  1: relative flow change = 0.000000
                        maximum  flow change = 0.0000 for Link 33
                        maximum  head error  = 0.0000 for Link 2

     8:00:00: Balanced after 1 trials
   
  WARNING: Negative pressures at 8:00:00 hrs.
   
     9:00:00: Balancing the network:

              Trial  1: relative flow change = 0.166667
              Trial  2: relative flow change = 0.000000
                        maximum  flow change = 0.0000 for Link 4
                        maximum  head error  = 0.0000 for Link 1

     9:00:00: Balanced after 2 trials
   
  WARNING: Negative pressures at 9:00:00 hrs.
   
    10:00:00: Balancing the network:

              Trial  1: relative flow change = 0.000000
                        maximum  flow change = 0.0000 for Link 78
                        maximum  head error  = 0.0000 for Link 6

    10:00:00: Balanced after 1 trials
   
  WARNING: Negative pressures at 10:00:00 hrs.
   
    11:00:00: Balancing the network:

              Trial  1: relative flow change = 0.000000
                        maximum  flow change = 0.0000 for Link 33
                        maximum  head error  = 0.0000 for Link 2

    11:00:00: Balanced after 1 trials
   
  WARNING: Negative pressures at 11:00:00 hrs.
   
    12:00:00: Balancing the network:

              Trial  1: relative flow change = 0.500000
              Trial  2: relative flow change = 0.075360
              Trial  3: relative flow change = 0.007831
                        maximum  flow change = 88.2961 for Link 78
                        maximum  head error  = 0.0000 for Link 1

    12:00:00: Balanced after 3 trials
   
  WARNING: Negative pressures at 12:00:00 hrs.
  WARNING: Pump 78 open but exceeds maximum flow at 12:00:00 hrs.
   
    13:00:00: Balancing the network:

              Trial  1: relative flow change = 0.000000
                        maximum  flow change = 0.0000 for Link 33
                        maximum  head error  = 0.0000 for Link 1

    13:00:00: Balanced after 1 trials
   
  WARNING: Negative pressures at 13:00:00 hrs.
  WARNING: Pump 78 open but exceeds maximum flow at 13:00:00 hrs.
   
    14:00:00: NING: Pump 78 open but exceeds maximum flow at 14:00:00 hrs.
   
    15:00:00: Balancing the network:

              Trial  1: relative flow change = 0.087549
              Trial  2: relative flow change = 0.000000
                        maximum  flow change = 0.0000 for Link 4
                        maximum  head error  = 0.0000 for Link pipe_26_2

    15:00:00: Balanced after 2 trials
   
  WARNING: Negative pressures at 15:00:00 hrs.
  WARNING: Pump 78 open but exceeds maximum flow at 15:00:00 hrs.
   
    16:00:00: Balancing the network:

              Trial  1: relative flow change = 0.000000
                        maximum  flow change = 0.0000 for Link 4
                        maximum  head error  = 0.0000 for Link pipe_26_2

    16:00:00: Balanced after 1 trials
   
  WARNING: Negative pressures at 16:00:00 hrs.
  WARNING: Pump 78 open but exceeds maximum flow at 16:00:00 hrs.
   
    17:00:00: Balancing the network:

              Trial  1: relative flow change = 0.035232
              Trial  2: relative flow change = 0.000000
                        maximum  flow change = 0.0000 for Link 40
                        maximum  head error  = 0.0000 for Link pipe_26_3

    17:00:00: Balanced after 2 trials
   
  WARNING: Negative pressures at 17:00:00 hrs.
  WARNING: Pump 78 open but exceeds maximum flow at 17:00:00 hrs.
   
    18:00:00: Balancing the network:

              Trial  1: relative flow change = 0.095828
              Trial  2: relative flow change = 0.000000
                        maximum  flow change = 0.0000 for Link 4
                        maximum  head error  = 0.0000 for Link pipe_26_2

    18:00:00: Balanced after 2 trials
   
  WARNING: Negative pressures at 18:00:00 hrs.
   
    19:00:00: Balancing the network:

              Trial  1: relative flow change = 0.039701
              Trial  2: relative flow change = 0.000693
                        maximum  flow change = 6.8688 for Link 78
                        maximum  head error  = 0.0000 for Link pipe_26_3

    19:00:00: Balanced after 2 trials
   
  WARNING: Negative pressures at 19:00:00 hrs.
   
    20:00:00: Balancing the network:

              Trial  1: relative flow change = 0.000000
                        maximum  flow change = 0.0000 for Link 40
                        maximum  head error  = 0.0000 for Link pipe_26_3

    20:00:00: Balanced after 1 trials
   
  WARNING: Negative pressures at 20:00:00 hrs.
   
    21:00:00: Balancing the network:

              Trial  1: relative flow change = 0.106960
              Trial  2: relative flow change = 0.004581
                        maximum  flow change = 41.5915 for Link 78
                        maximum  head error  = 0.0000 for Link pipe_26_2

    21:00:00: Balanced after 2 trials
   
  WARNING: Negative pressures at 21:00:00 hrs.
   
    22:00:00: Balancing the network:

              Trial  1: relative flow change = 0.045868
              Trial  2: relative flow change = 0.010135
              Trial  3: relative flow change = 0.000000
                        maximum  flow change = 0.0000 for Link 4
                        maximum  head error  = 0.0000 for Link pipe_26_3

    22:00:00: Balanced after 3 trials
   
  WARNING: Negative pressures at 22:00:00 hrs.
   
    23:00:00: Balancing the network:

              Trial  1: relative flow change = 0.000000
                        maximum  flow change = 0.0000 for Link 4
                        maximum  head error  = 0.0000 for Link pipe_26_2

    23:00:00: Balanced after 1 trials
   
  WARNING: Negative pressures at 23:00:00 hrs.
   
    24:00:00: Balancing the network:

              Trial  1: relative flow change = 0.100000
              Trial  2: relative flow change = 0.008940
                        maximum  flow change = 73.7951 for Link 78
                        maximum  head error  = 0.0000 for Link pipe_26_2

    24:00:00: Balanced after 2 trials
   
  WARNING: Negative pressures at 24:00:00 hrs.
   ING: Pump 80 open but exceeds maximum flow at 23:00:00 hrs.
   
    24:00:00: Balancing the network:

             closed
              Trial  3: relative flow change = 0.032646
              Trial  4: relative flow change = 0.000000
                        maximum  flow change = 0.0000 for Link 40
                        maximum  head error  = 0.0000 for Link 1

    23:00:00: Balanced after 4 trials
   
  WARNING: Negative pressures at 23:00:00 hrs.
  WARNING: Pump 78 closed because cannot deliver head at 23:00:00 hrs.
   
    24:00:00: Balancing the network:

              Trial  1: relative flow change = 0.217722
              Trial  2: relative flow change = 0.142449
              Pump 78 switched from open to closed
              Trial  3: relative flow change = 0.054182
              Trial  4: relative flow change = 0.000000
                        maximum  flow change = 0.0000 for Link 33
                        maximum  head error  = 0.0000 for Link 1

    24:00:00: Balanced after 4 trials
   
  WARNING: Negative pressures at 24:00:00 hrs.
  WARNING: Pump 78 closed because cannot deliver head at 24:00:00 hrs.
   