  Page 1                                    Thu May 22 20:58:59 2025

  ******************************************************************
  *                           E P A N E T                          *
  *                   Hydraulic and Water Quality                  *
  *                   Analysis for Pipe Networks                   *
  *                         Version 2.2                            *
  ******************************************************************
  
  Error 227: invalid head curve for pump Pump
  Error 200: one or more errors in input file