  Page 1                                    Mon May 26 20:07:48 2025

  ******************************************************************
  *                           E P A N E T                          *
  *                   Hydraulic and Water Quality                  *
  *                   Analysis for Pipe Networks                   *
  *                         Version 2.2                            *
  ******************************************************************
  
  Analysis begun Mon May 26 20:07:48 2025

   
  Hydraulic Status:
  -----------------------------------------------------------------------
     0:00:00: Balancing the network:

              Trial  1: relative flow change = 0.989012
              Trial  2: relative flow change = 0.216300
              Pipe 142 switched from open to closed
              Pipe 143 switched from open to closed
              Trial  3: relative flow change = 1.137251
              Trial  4: relative flow change = 0.115947
              Trial  5: relative flow change = 0.026393
              Trial  6: relative flow change = 0.001331
                        maximum  flow change = 6.7978 for Link 28
                        maximum  head error  = 0.0088 for Link 28

     0:00:00: Balanced after 6 trials
     0:00:00: Reservoir 40 is emptying
     0:00:00: Tank 41 is closed at 3.05 m
     0:00:00: Tank 42 is closed at 3.05 m
     0:00:00: Pipe 142 temporarily closed
     0:00:00: Pipe 143 temporarily closed
   
  WARNING: Negative pressures at 0:00:00 hrs.
  WARNING: Pump 78 open but exceeds maximum flow at 0:00:00 hrs.
  WARNING: Pump 79 open but exceeds maximum flow at 0:00:00 hrs.
  WARNING: Pump 80 open but exceeds maximum flow at 0:00:00 hrs.
   
     1:00:00: Balancing the network:

              Trial  1: relative flow change = 0.000006
                        maximum  flow change = 0.0215 for Link 28
                        maximum  head error  = 0.0000 for Link 28

     1:00:00: Balanced after 1 trials
   
  WARNING: Negative pressures at 1:00:00 hrs.
  WARNING: Pump 78 open but exceeds maximum flow at 1:00:00 hrs.
  WARNING: Pump 79 open but exceeds maximum flow at 1:00:00 hrs.
  WARNING: Pump 80 open but exceeds maximum flow at 1:00:00 hrs.
   
     2:00:00: Balancing the network:

              Trial  1: relative flow change = 0.000000
                        maximum  flow change = 0.0000 for Link 125
                        maximum  head error  = 0.0000 for Link pipe_26_5

     2:00:00: Balanced after 1 trials
   
  WARNING: Negative pressures at 2:00:00 hrs.
  WARNING: Pump 78 open but exceeds maximum flow at 2:00:00 hrs.
  WARNING: Pump 79 open but exceeds maximum flow at 2:00:00 hrs.
  WARNING: Pump 80 open but exceeds maximum flow at 2:00:00 hrs.
   
     3:00:00: Balancing the network:

              Trial  1: relative flow change = 0.111111
              Trial  2: relative flow change = 0.000000
                        maximum  flow change = 0.0001 for Link 4
                        maximum  head error  = 0.0000 for Link pipe_26_5

     3:00:00: Balanced after 2 trials
   
  WARNING: Negative pressures at 3:00:00 hrs.
  WARNING: Pump 78 open but exceeds maximum flow at 3:00:00 hrs.
  WARNING: Pump 79 open but exceeds maximum flow at 3:00:00 hrs.
  WARNING: Pump 80 open but exceeds maximum flow at 3:00:00 hrs.
   
     4:00:00: Balancing the network:

              Trial  1: relative flow change = 0.000000
                        maximum  flow change = 0.0000 for Link 4
                        maximum  head error  = 0.0000 for Link pipe_26_6

     4:00:00: Balanced after 1 trials
   
  WARNING: Negative pressures at 4:00:00 hrs.
  WARNING: Pump 78 open but exceeds maximum flow at 4:00:00 hrs.
  WARNING: Pump 79 open but exceeds maximum flow at 4:00:00 hrs.
  WARNING: Pump 80 open but exceeds maximum flow at 4:00:00 hrs.
   
     5:00:00: Balancing the network:

              Trial  1: relative flow change = 0.000000
                        maximum  flow change = 0.0000 for Link 4
                        maximum  head error  = 0.0000 for Link pipe_26_5

     5:00:00: Balanced after 1 trials
   
  WARNING: Negative pressures at 5:00:00 hrs.
  WARNING: Pump 78 open but exceeds maximum flow at 5:00:00 hrs.
  WARNING: Pump 79 open but exceeds maximum flow at 5:00:00 hrs.
  WARNING: Pump 80 open but exceeds maximum flow at 5:00:00 hrs.
   
     6:00:00: Balancing the network:

              Trial  1: relative flow change = 0.285714
              Trial  2: relative flow change = 0.000000
                        maximum  flow change = 0.0002 for Link 4
                        maximum  head error  = 0.0000 for Link pipe_26_6

     6:00:00: Balanced after 2 trials
   
  WARNING: Negative pressures at 6:00:00 hrs.
   
     7:00:00: Balancing the network:

              Trial  1: relative flow change = 0.000000
                        maximum  flow change = 0.0000 for Link 4
                        maximum  head error  = 0.0000 for Link pipe_26_6

     7:00:00: Balanced after 1 trials
   
  WARNING: Negative pressures at 7:00:00 hrs.
   
     8:00:00: Balancing the network:

              Trial  1: relative flow change = 0.000000
                        maximum  flow change = 0.0000 for Link 40
                        maximum  head error  = 0.0000 for Link pipe_26_5

     8:00:00: Balanced after 1 trials
   
  WARNING: Negative pressures at 8:00:00 hrs.
   
     9:00:00: Balancing the network:

              Trial  1: relative flow change = 0.166667
              Trial  2: relative flow change = 0.000000
                        maximum  flow change = 0.0001 for Link 4
                        maximum  head error  = 0.0000 for Link pipe_26_6

     9:00:00: Balanced after 2 trials
   
  WARNING: Negative pressures at 9:00:00 hrs.
   
    10:00:00: Balancing the network:

              Trial  1: relative flow change = 0.000000
                        maximum  flow change = 0.0000 for Link 4
                        maximum  head error  = 0.0000 for Link pipe_26_6

    10:00:00: Balanced after 1 trials
   
  WARNING: Negative pressures at 10:00:00 hrs.
   
    11:00:00: Balancing the network:

              Trial  1: relative flow change = 0.000000
                        maximum  flow change = 0.0000 for Link 4
                        maximum  head error  = 0.0000 for Link pipe_26_6

    11:00:00: Balanced after 1 trials
   
  WARNING: Negative pressures at 11:00:00 hrs.
   
    12:00:00: Balancing the network:

              Trial  1: relative flow change = 0.500000
              Trial  2: relative flow change = 0.000000
                        maximum  flow change = 0.0020 for Link 4
                        maximum  head error  = 0.0000 for Link pipe_26_6

    12:00:00: Balanced after 2 trials
   
  WARNING: Negative pressures at 12:00:00 hrs.
  WARNING: Pump 78 open but exceeds maximum flow at 12:00:00 hrs.
  WARNING: Pump 79 open but exceeds maximum flow at 12:00:00 hrs.
  WARNING: Pump 80 open but exceeds maximum flow at 12:00:00 hrs.
   
    13:00:00: Balancing the network:

              Trial  1: relative flow change = 0.000000
                        maximum  flow change = 0.0000 for Link 33
                        maximum  head error  = 0.0000 for Link pipe_26_5

    13:00:00: Balanced after 1 trials
   
  WARNING: Negative pressures at 13:00:00 hrs.
  WARNING: Pump 78 open but exceeds maximum flow at 13:00:00 hrs.
  WARNING: Pump 79 open but exceeds maximum flow at 13:00:00 hrs.
  WARNING: Pump 80 open but exceeds maximum flow at 13:00:00 hrs.
   
    14:00:00: Balancing the network:

              Trial  1: relative flow change = 0.000000
                        maximum  flow change = 0.0000 for Link 4
                        maximum  head error  = 0.0000 for Link pipe_26_5

    14:00:00: Balanced after 1 trials
   
  WARNING: Negative pressures at 14:00:00 hrs.
  WARNING: Pump 78 open but exceeds maximum flow at 14:00:00 hrs.
  WARNING: Pump 79 open but exceeds maximum flow at 14:00:00 hrs.
  WARNING: Pump 80 open but exceeds maximum flow at 14:00:00 hrs.
   
    15:00:00: Balancing the network:

              Trial  1: relative flow change = 0.076923
              Trial  2: relative flow change = 0.000000
                        maximum  flow change = 0.0001 for Link 4
                        maximum  head error  = 0.0000 for Link pipe_28_12

    15:00:00: Balanced after 2 trials
   
  WARNING: Negative pressures at 15:00:00 hrs.
  WARNING: Pump 78 open but exceeds maximum flow at 15:00:00 hrs.
  WARNING: Pump 79 open but exceeds maximum flow at 15:00:00 hrs.
  WARNING: Pump 80 open but exceeds maximum flow at 15:00:00 hrs.
   
    16:00:00: Balancing the network:

              Trial  1: relative flow change = 0.000000
                        maximum  flow change = 0.0000 for Link 4
                        maximum  head error  = 0.0000 for Link pipe_28_12

    16:00:00: Balanced after 1 trials
   
  WARNING: Negative pressures at 16:00:00 hrs.
  WARNING: Pump 78 open but exceeds maximum flow at 16:00:00 hrs.
  WARNING: Pump 79 open but exceeds maximum flow at 16:00:00 hrs.
  WARNING: Pump 80 open but exceeds maximum flow at 16:00:00 hrs.
   
    17:00:00: Balancing the network:

              Trial  1: relative flow change = 0.000000
                        maximum  flow change = 0.0000 for Link 4
                        maximum  head error  = 0.0000 for Link pipe_26_5

    17:00:00: Balanced after 1 trials
   
  WARNING: Negative pressures at 17:00:00 hrs.
  WARNING: Pump 78 open but exceeds maximum flow at 17:00:00 hrs.
  WARNING: Pump 79 open but exceeds maximum flow at 17:00:00 hrs.
  WARNING: Pump 80 open but exceeds maximum flow at 17:00:00 hrs.
   
    18:00:00: Balancing the network:

              Trial  1: relative flow change = 0.083333
              Trial  2: relative flow change = 0.000000
                        maximum  flow change = 0.0001 for Link 4
                        maximum  head error  = 0.0000 for Link pipe_26_6

    18:00:00: Balanced after 2 trials
   
  WARNING: Negative pressures at 18:00:00 hrs.
  WARNING: Pump 78 open but exceeds maximum flow at 18:00:00 hrs.
  WARNING: Pump 79 open but exceeds maximum flow at 18:00:00 hrs.
  WARNING: Pump 80 open but exceeds maximum flow at 18:00:00 hrs.
   
    19:00:00: Balancing the network:

              Trial  1: relative flow change = 0.000000
                        maximum  flow change = 0.0000 for Link 33
                        maximum  head error  = 0.0000 for Link pipe_26_6

    19:00:00: Balanced after 1 trials
   
  WARNING: Negative pressures at 19:00:00 hrs.
  WARNING: Pump 78 open but exceeds maximum flow at 19:00:00 hrs.
  WARNING: Pump 79 open but exceeds maximum flow at 19:00:00 hrs.
  WARNING: Pump 80 open but exceeds maximum flow at 19:00:00 hrs.
   
    20:00:00: Balancing the network:

              Trial  1: relative flow change = 0.000000
                        maximum  flow change = 0.0000 for Link 40
                        maximum  head error  = 0.0000 for Link pipe_26_5

    20:00:00: Balanced after 1 trials
   
  WARNING: Negative pressures at 20:00:00 hrs.
  WARNING: Pump 78 open but exceeds maximum flow at 20:00:00 hrs.
  WARNING: Pump 79 open but exceeds maximum flow at 20:00:00 hrs.
  WARNING: Pump 80 open but exceeds maximum flow at 20:00:00 hrs.
   
    21:00:00: Balancing the network:

              Trial  1: relative flow change = 0.090909
              Trial  2: relative flow change = 0.000000
                        maximum  flow change = 0.0001 for Link 4
                        maximum  head error  = 0.0000 for Link pipe_28_12

    21:00:00: Balanced after 2 trials
   
  WARNING: Negative pressures at 21:00:00 hrs.
  WARNING: Pump 78 open but exceeds maximum flow at 21:00:00 hrs.
  WARNING: Pump 79 open but exceeds maximum flow at 21:00:00 hrs.
  WARNING: Pump 80 open but exceeds maximum flow at 21:00:00 hrs.
   
    22:00:00: Balancing the network:

              Trial  1: relative flow change = 0.000000
                        maximum  flow change = 0.0000 for Link 40
                        maximum  head error  = 0.0000 for Link pipe_26_6

    22:00:00: Balanced after 1 trials
   
  WARNING: Negative pressures at 22:00:00 hrs.
  WARNING: Pump 78 open but exceeds maximum flow at 22:00:00 hrs.
  WARNING: Pump 79 open but exceeds maximum flow at 22:00:00 hrs.
  WARNING: Pump 80 open but exceeds maximum flow at 22:00:00 hrs.
   
    23:00:00: Balancing the network:

              Trial  1: relative flow change = 0.000000
                        maximum  flow change = 0.0000 for Link 40
                        maximum  head error  = 0.0000 for Link pipe_28_12

    23:00:00: Balanced after 1 trials
   
  WARNING: Negative pressures at 23:00:00 hrs.
  WARNING: Pump 78 open but exceeds maximum flow at 23:00:00 hrs.
  WARNING: Pump 79 open but exceeds maximum flow at 23:00:00 hrs.
  WARNING: Pump 80 open but exceeds maximum flow at 23:00:00 hrs.
   
    24:00:00: Balancing the network:

              Trial  1: relative flow change = 0.100000
              Trial  2: relative flow change = 0.000000
                        maximum  flow change = 0.0001 for Link 4
                        maximum  head error  = 0.0000 for Link pipe_28_12

    24:00:00: Balanced after 2 trials
   
  WARNING: Negative pressures at 24:00:00 hrs.
  WARNING: Pump 78 open but exceeds maximum flow at 24:00:00 hrs.
  WARNING: Pump 79 open but exceeds maximum flow at 24:00:00 hrs.
  WARNING: Pump 80 open but exceeds maximum flow at 24:00:00 hrs.
   
  Analysis ended Mon May 26 20:07:48 2025
